Version 4
SHEET 1 1048 680
WIRE 688 -352 576 -352
WIRE 576 -320 576 -352
WIRE 688 -288 688 -352
WIRE 576 -224 576 -240
WIRE 784 -224 576 -224
WIRE 272 -144 224 -144
WIRE 656 -144 352 -144
WIRE 784 -144 784 -224
WIRE 576 -64 576 -224
WIRE 576 -64 528 -64
WIRE 96 -48 -80 -48
WIRE 224 -48 224 -144
WIRE 224 -48 176 -48
WIRE 368 -48 224 -48
WIRE 400 -48 368 -48
WIRE 576 -32 528 -32
WIRE 400 -16 208 -16
WIRE -80 0 -80 -48
WIRE 656 0 656 -144
WIRE 656 0 528 0
WIRE 784 0 784 -64
WIRE 784 0 656 0
WIRE 848 0 784 0
WIRE 864 0 848 0
WIRE 208 16 208 -16
WIRE 848 48 848 0
WIRE 576 64 576 -32
WIRE 208 80 208 16
WIRE -80 144 -80 80
WIRE 848 160 848 128
WIRE 912 160 848 160
WIRE 848 176 848 160
WIRE 208 224 208 160
WIRE 848 304 848 256
FLAG 576 64 0
FLAG 688 -288 0
FLAG -80 144 0
FLAG 864 0 Vout
IOPIN 864 0 Out
FLAG 208 224 0
FLAG 208 16 Signal
IOPIN 208 16 In
FLAG 368 -48 Ref
IOPIN 368 -48 In
FLAG 848 304 0
FLAG 912 160 3.3Out
IOPIN 912 160 Out
SYMBOL voltage -80 -16 R0
WINDOW 123 0 0 Left 0
WINDOW 39 0 0 Left 0
SYMATTR InstName V1
SYMATTR Value 6
SYMBOL res 192 -64 R90
WINDOW 0 0 56 VBottom 2
WINDOW 3 32 56 VTop 2
SYMATTR InstName R1
SYMATTR Value 1k
SYMBOL res 368 -160 R90
WINDOW 0 0 56 VBottom 2
WINDOW 3 32 56 VTop 2
SYMATTR InstName R2
SYMATTR Value 1200k
SYMBOL voltage 576 -224 R180
WINDOW 0 24 96 Left 2
WINDOW 3 24 16 Left 2
WINDOW 123 0 0 Left 0
WINDOW 39 0 0 Left 0
SYMATTR InstName V2
SYMATTR Value 12
SYMBOL res 768 -160 R0
SYMATTR InstName R3
SYMATTR Value 4.7k
SYMBOL voltage 208 64 R0
WINDOW 0 24 96 Left 2
WINDOW 3 24 16 Left 2
WINDOW 123 0 0 Left 0
WINDOW 39 0 0 Left 0
SYMATTR InstName V3
SYMATTR Value SINE(6 0.03 3000)
SYMBOL LM2903B 464 -32 R0
SYMATTR InstName U1
SYMBOL res 832 32 R0
SYMATTR InstName R4
SYMATTR Value 270k
SYMBOL res 832 160 R0
SYMATTR InstName R5
SYMATTR Value 100k
TEXT -272 200 Left 2 !.tran 0 0.001 0 0.00000001
